@<TRIPOS>MOLECULE
*****
     34     35      1
SMALL
USER_CHARGES

@<TRIPOS>ATOM
      1  S1         -1.389467    2.681985   -1.344744  S.3     1  <1>   0.00
      2  C2         -2.686016    1.581469   -0.931960  C.2     1  <1>   0.00
      3  C3         -2.242876    0.556152   -0.113891  C.2     1  <1>   0.00
      4  C4         -0.845059    0.662110    0.170800  C.2     1  <1>   0.00
      5  C5         -0.226103    1.743296   -0.427363  C.2     1  <1>   0.00
      6  H6         -0.264321   -0.010711    0.784891  H       1  <1>   0.00
      7  C7         -3.097080   -0.566002    0.430710  C.3     1  <1>   0.00
      8  H8         -4.143386   -0.267082    0.354262  H       1  <1>   0.00
      9  H9         -2.887164   -0.663557    1.496462  H       1  <1>   0.00
     10  C10        -2.895238   -1.919129   -0.265671  C.3     1  <1>   0.00
     11  H11        -3.103404   -1.810473   -1.330938  H       1  <1>   0.00
     12  H12        -1.848200   -2.214862   -0.188276  H       1  <1>   0.00
     13  C13        -3.781198   -3.028229    0.316083  C.3     1  <1>   0.00
     14  H14        -4.839130   -2.782638    0.217512  H       1  <1>   0.00
     15  H15        -3.611512   -3.972187   -0.202752  H       1  <1>   0.00
     16  H16        -3.570659   -3.189926    1.373778  H       1  <1>   0.00
     17  S17         2.366982    0.827922   -0.329937  S.3     1  <1>   0.00
     18  C18         3.682131    1.964970   -0.218992  C.2     1  <1>   0.00
     19  C19         3.225318    3.263278   -0.177348  C.2     1  <1>   0.00
     20  C20         1.796756    3.367221   -0.226038  C.2     1  <1>   0.00
     21  C21         1.176751    2.122579   -0.298921  C.2     1  <1>   0.00
     22  H22         3.937670    4.072199   -0.116428  H       1  <1>   0.00
     23  C23         1.073794    4.702392   -0.195980  C.3     1  <1>   0.00
     24  H24         0.151883    4.563137    0.370039  H       1  <1>   0.00
     25  H25         0.771018    4.937562   -1.216954  H       1  <1>   0.00
     26  C26         1.842081    5.893473    0.401364  C.3     1  <1>   0.00
     27  H27         2.735558    6.090928   -0.191409  H       1  <1>   0.00
     28  H28         2.183195    5.637740    1.405398  H       1  <1>   0.00
     29  C29         0.996077    7.171689    0.465242  C.3     1  <1>   0.00
     30  H30         1.568589    7.995899    0.891679  H       1  <1>   0.00
     31  H31         0.109836    7.029553    1.084740  H       1  <1>   0.00
     32  H32         0.665239    7.477484   -0.527925  H       1  <1>   0.00
     33  H33        -3.709322    1.680761   -1.262921  H       1  <1>   0.00
     34  H34         4.729057    1.700996   -0.194712  H       1  <1>   0.00

@<TRIPOS>BOND
      1      1      2  1
      2      1      5  1
      3      2      3  2
      4      2     33  1
      5      3      4  1
      6      3      7  1
      7      4      5  2
      8      4      6  1
      9      5     21  1
     10      7      8  1
     11      7      9  1
     12      7     10  1
     13     10     11  1
     14     10     12  1
     15     10     13  1
     16     13     14  1
     17     13     15  1
     18     13     16  1
     19     17     18  1
     20     17     21  1
     21     18     19  2
     22     18     34  1
     23     19     20  1
     24     19     22  1
     25     20     21  2
     26     20     23  1
     27     23     24  1
     28     23     25  1
     29     23     26  1
     30     26     27  1
     31     26     28  1
     32     26     29  1
     33     29     30  1
     34     29     31  1
     35     29     32  1

@<TRIPOS>SUBSTRUCTURE
      1  ****      1  TEMP      0  ****  ****      0  ROOT
