@<TRIPOS>MOLECULE
*****
 34 35 0 0 0
SMALL
GASTEIGER

@<TRIPOS>ATOM
      1 S          -1.5619    2.6235   -0.3782 S.2     1  UNL1       -0.0959
      2 C          -2.6730    1.3523   -0.1969 C.ar    1  UNL1       -0.0205
      3 C          -1.9783    0.1812    0.1112 C.ar    1  UNL1       -0.0398
      4 C          -0.5780    0.4015    0.1532 C.ar    1  UNL1       -0.0433
      5 C          -0.1583    1.7429   -0.0848 C.ar    1  UNL1        0.0264
      6 H           0.1167   -0.3971    0.3895 H       1  UNL1        0.0632
      7 C          -2.6799   -1.1415    0.4942 C.3     1  UNL1       -0.0274
      8 H          -3.3791   -0.8892    1.3195 H       1  UNL1        0.0313
      9 H          -1.9226   -1.8447    0.9018 H       1  UNL1        0.0313
     10 C          -3.4866   -1.9376   -0.5695 C.3     1  UNL1       -0.0519
     11 H          -4.2497   -1.3038   -1.0686 H       1  UNL1        0.0266
     12 H          -2.7946   -2.3399   -1.3405 H       1  UNL1        0.0266
     13 C          -4.2326   -3.1348    0.0732 C.3     1  UNL1       -0.0650
     14 H          -5.0101   -2.7840    0.7880 H       1  UNL1        0.0230
     15 H          -4.7503   -3.7483   -0.6985 H       1  UNL1        0.0230
     16 H          -3.5383   -3.8078    0.6222 H       1  UNL1        0.0230
     17 S           2.5130    1.1442    0.2555 S.2     1  UNL1       -0.0959
     18 C           3.8033    2.1977    0.1903 C.ar    1  UNL1       -0.0235
     19 C           3.3004    3.4640   -0.0510 C.ar    1  UNL1       -0.0509
     20 C           1.8950    3.5442   -0.1771 C.ar    1  UNL1       -0.0321
     21 C           1.2631    2.2472   -0.0252 C.ar    1  UNL1        0.0291
     22 H           3.9662    4.3161   -0.1424 H       1  UNL1        0.0626
     23 C           1.2731    4.9117   -0.5051 C.3     1  UNL1       -0.0268
     24 H           0.1762    4.8419   -0.5947 H       1  UNL1        0.0313
     25 H           1.6868    5.2013   -1.4968 H       1  UNL1        0.0313
     26 C           1.6401    6.0838    0.4628 C.3     1  UNL1       -0.0519
     27 H           2.7435    6.1822    0.5595 H       1  UNL1        0.0266
     28 H           1.2180    5.9024    1.4729 H       1  UNL1        0.0266
     29 C           1.1343    7.4547   -0.0394 C.3     1  UNL1       -0.0650
     30 H           1.4356    8.2635    0.6660 H       1  UNL1        0.0230
     31 H           0.0280    7.4767   -0.1236 H       1  UNL1        0.0230
     32 H           1.5725    7.7108   -1.0297 H       1  UNL1        0.0230
     33 H          -3.7474    1.4517   -0.2433 H       1  UNL1        0.0696
     34 H           4.8467    1.9332    0.3053 H       1  UNL1        0.0693
@<TRIPOS>BOND
     1     2     1   ar
     2     2     3   ar
     3     3     4   ar
     4     4     5   ar
     5     5     1   ar
     6     6     4    1
     7     7     3    1
     8     8     7    1
     9     9     7    1
    10    10     7    1
    11    11    10    1
    12    12    10    1
    13    13    10    1
    14    14    13    1
    15    15    13    1
    16    16    13    1
    17    18    17   ar
    18    18    19   ar
    19    19    20   ar
    20    20    21   ar
    21    21    17   ar
    22    21     5    1
    23    22    19    1
    24    23    20    1
    25    24    23    1
    26    25    23    1
    27    26    23    1
    28    27    26    1
    29    28    26    1
    30    29    26    1
    31    30    29    1
    32    31    29    1
    33    32    29    1
    34    33     2    1
    35    34    18    1
